


 79 88  0  0001  0  0  0  0  0999 V2000
   20.0994   -2.3711    0.0000 O   0  0  0  0  0  0  0  0  0  0  0
   19.6307   -5.9002    0.0000 O   0  0  0  0  0  0  0  0  0  0  0
   16.2394   -4.5768    0.0000 O   0  0  0  0  0  0  0  0  0  0  0
   23.5182   -3.3637    0.0000 O   0  0  0  0  0  0  0  0  0  0  0
    4.8525   -5.7624    0.0000 O   0  0  0  0  0  0  0  0  0  0  0
    7.7199   -8.2438    0.0000 O   0  0  0  0  0  0  0  0  0  0  0
    3.5567   -9.3742    0.0000 O   0  0  0  0  0  0  0  0  0  0  0
   10.3943   -5.7348    0.0000 O   0  0  0  0  0  0  0  0  0  0  0
   13.6753   -7.3615    0.0000 O   0  0  0  0  0  0  0  0  0  0  0
   21.3125    0.0000    0.0000 O   0  0  0  0  0  0  0  0  0  0  0
    0.1930   -9.8980    0.0000 O   0  0  0  0  0  0  0  0  0  0  0
    0.0000  -12.2416    0.0000 O   0  0  0  0  0  0  0  0  0  0  0
   24.2902   -4.5217    0.0000 O   0  0  0  0  0  0  0  0  0  0  0
   19.4928   -3.5843    0.0000 C   0  0  0  0  0  0  0  0  0  0  0
   20.2372   -4.7147    0.0000 C   0  0  0  0  0  0  0  0  0  0  0
   21.4504   -2.3160    0.0000 C   0  0  0  0  0  0  0  0  0  0  0
   22.1672   -3.4188    0.0000 C   0  0  0  0  0  0  0  0  0  0  0
   17.5628   -4.8525    0.0000 C   0  0  0  0  0  0  0  0  0  0  0
   18.2797   -5.9829    0.0000 C   0  0  0  0  0  0  0  0  0  0  0
   21.5882   -4.6320    0.0000 C   0  0  0  0  0  0  0  0  0  0  0
    6.5068   -7.6648    0.0000 C   0  0  0  0  0  0  0  0  0  0  0
   18.1694   -3.6670    0.0000 C   0  0  0  0  0  0  0  0  0  0  0
    6.2035   -6.3689    0.0000 C   0  0  0  0  0  0  0  0  0  0  0
    4.2460   -8.1886    0.0000 C   0  0  0  0  0  0  0  0  0  0  0
    3.9427   -6.9479    0.0000 C   0  0  0  0  0  0  0  0  0  0  0
    9.2088   -6.3689    0.0000 C   0  0  0  0  0  0  0  0  0  0  0
    8.9882   -7.5821    0.0000 C   0  0  0  0  0  0  0  0  0  0  0
   22.0569   -1.1028    0.0000 C   0  0  0  0  0  0  0  0  0  0  0
   15.0539   -5.2937    0.0000 C   0  0  0  0  0  0  0  0  0  0  0
    5.5142   -8.5746    0.0000 C   0  0  0  0  0  0  0  0  0  0  0
   14.8057   -6.6171    0.0000 C   0  0  0  0  0  0  0  0  0  0  0
   24.1248   -2.1506    0.0000 C   0  0  0  0  0  0  0  0  0  0  0
   11.7177   -6.0381    0.0000 C   0  0  0  0  0  0  0  0  0  0  0
    8.3816   -5.3212    0.0000 C   0  0  0  0  0  0  0  0  0  0  0
    2.2884   -9.7050    0.0000 C   0  0  0  0  0  0  0  0  0  0  0
    7.0306   -5.2937    0.0000 C   0  0  0  0  0  0  0  0  0  0  0
   12.4070   -7.1685    0.0000 C   0  0  0  0  0  0  0  0  0  0  0
   18.0040   -7.2788    0.0000 C   0  0  0  0  0  0  0  0  0  0  0
   23.3803   -1.0201    0.0000 C   0  0  0  0  0  0  0  0  0  0  0
    1.1580   -9.0433    0.0000 C   0  0  0  0  0  0  0  0  0  0  0
   17.2044   -3.5567    0.0000 C   0  0  0  0  0  0  0  0  0  0  0
    2.8398   -6.2587    0.0000 C   0  0  0  0  0  0  0  0  0  0  0
   15.5777   -7.7475    0.0000 C   0  0  0  0  0  0  0  0  0  0  0
   14.3094   -4.1908    0.0000 C   0  0  0  0  0  0  0  0  0  0  0
    9.2088   -8.4643    0.0000 C   0  0  0  0  0  0  0  0  0  0  0
   16.9011   -8.0232    0.0000 C   0  0  0  0  0  0  0  0  0  0  0
    3.5567   -5.6521    0.0000 C   0  0  0  0  0  0  0  0  0  0  0
    1.5716   -6.6171    0.0000 C   0  0  0  0  0  0  0  0  0  0  0
   11.8832   -4.6595    0.0000 C   0  0  0  0  0  0  0  0  0  0  0
    1.9851  -10.9733    0.0000 C   0  0  0  0  0  0  0  0  0  0  0
    0.8823   -7.7475    0.0000 C   0  0  0  0  0  0  0  0  0  0  0
   25.5033   -2.0678    0.0000 C   0  0  0  0  0  0  0  0  0  0  0
   12.1589   -8.2989    0.0000 C   0  0  0  0  0  0  0  0  0  0  0
   13.0136   -3.9151    0.0000 C   0  0  0  0  0  0  0  0  0  0  0
    0.6893  -11.0836    0.0000 C   0  0  0  0  0  0  0  0  0  0  0
    8.9606   -4.0805    0.0000 C   0  0  0  0  0  0  0  0  0  0  0
    9.9808   -9.2363    0.0000 C   0  0  0  0  0  0  0  0  0  0  0
   11.3593   -9.2915    0.0000 C   0  0  0  0  0  0  0  0  0  0  0
   26.2477   -3.2258    0.0000 C   0  0  0  0  0  0  0  0  0  0  0
    0.7720   -5.5418    0.0000 C   0  0  0  0  0  0  0  0  0  0  0
   25.6136   -4.4390    0.0000 C   0  0  0  0  0  0  0  0  0  0  0
   27.5712   -3.1431    0.0000 C   0  0  0  0  0  0  0  0  0  0  0
   18.8311   -2.4263    0.0000 H   0  0  0  0  0  0  0  0  0  0  0
   20.8989   -5.8451    0.0000 H   0  0  0  0  0  0  0  0  0  0  0
   20.7887   -1.1580    0.0000 H   0  0  0  0  0  0  0  0  0  0  0
   23.1046   -4.3562    0.0000 H   0  0  0  0  0  0  0  0  0  0  0
   18.9690   -7.1134    0.0000 H   0  0  0  0  0  0  0  0  0  0  0
    6.8376   -8.9606    0.0000 H   0  0  0  0  0  0  0  0  0  0  0
    5.8451   -5.0731    0.0000 H   0  0  0  0  0  0  0  0  0  0  0
    4.5768   -9.4845    0.0000 H   0  0  0  0  0  0  0  0  0  0  0
    9.5672   -5.0731    0.0000 H   0  0  0  0  0  0  0  0  0  0  0
    8.6298   -8.8779    0.0000 H   0  0  0  0  0  0  0  0  0  0  0
   15.4123   -4.0254    0.0000 H   0  0  0  0  0  0  0  0  0  0  0
   14.4473   -7.8854    0.0000 H   0  0  0  0  0  0  0  0  0  0  0
   25.0622   -1.2131    0.0000 H   0  0  0  0  0  0  0  0  0  0  0
   11.0560   -4.8801    0.0000 H   0  0  0  0  0  0  0  0  0  0  0
    3.2258  -10.6425    0.0000 H   0  0  0  0  0  0  0  0  0  0  0
   13.0687   -8.3265    0.0000 H   0  0  0  0  0  0  0  0  0  0  0
    0.0276   -8.3816    0.0000 H   0  0  0  0  0  0  0  0  0  0  0
  1 14  1  0
  1 16  1  0
  2 15  1  0
  2 19  1  0
  3 18  1  0
  3 29  1  0
  4 17  1  0
  4 32  1  0
  5 23  1  0
  5 25  1  0
  6 21  1  0
  6 27  1  0
  7 24  1  0
  7 35  1  0
  8 26  1  0
  8 33  1  0
  9 31  1  0
  9 37  1  0
 28 10  1  1
 40 11  1  1
 11 55  1  0
 12 55  2  0
 13 61  2  0
 14 15  1  0
 14 22  1  0
 14 63  1  6
 15 20  1  0
 15 64  1  1
 16 17  1  0
 16 28  1  0
 16 65  1  6
 17 20  1  0
 17 66  1  1
 18 19  1  0
 18 22  1  0
 18 41  1  6
 19 38  1  0
 19 67  1  1
 21 23  1  0
 21 30  1  0
 21 68  1  1
 23 36  1  0
 23 69  1  6
 24 25  1  0
 24 30  1  0
 24 70  1  1
 25 42  1  0
 25 47  1  6
 26 27  1  0
 26 34  1  0
 26 71  1  6
 27 45  1  0
 27 72  1  1
 28 39  1  0
 29 31  1  0
 29 44  1  0
 29 73  1  6
 31 43  1  0
 31 74  1  1
 32 39  1  0
 32 52  1  0
 32 75  1  6
 33 37  1  0
 33 49  1  0
 33 76  1  6
 34 36  1  0
 34 56  1  6
 35 40  1  0
 35 50  1  0
 35 77  1  1
 37 53  1  0
 37 78  1  1
 38 46  1  0
 40 51  1  0
 40 79  1  6
 42 48  1  0
 43 46  1  0
 44 54  2  0
 45 57  1  0
 48 51  1  0
 48 60  1  1
 49 54  1  0
 50 55  1  0
 52 59  1  0
 53 58  1  0
 57 58  2  0
 59 61  1  0
 59 62  2  0
M  END

> <StdInChI>
InChI=1S/C49H70O13/c1-26-17-36-39(22-45(52)58-36)57-44-21-38-40(62-48(44,4)23-26)18-28(3)46-35(55-38)11-7-6-10-31-32(59-46)12-8-14-34-33(54-31)13-9-15-43-49(5,61-34)24-42-37(56-43)20-41-47(60-42)30(51)19-29(53-41)16-27(2)25-50/h6-8,14,25-26,28-44,46-47,51H,2,9-13,15-24H2,1,3-5H3/b7-6-,14-8-/t26-,28+,29-,30+,31-,32+,33+,34-,35+,36+,37+,38-,39-,40+,41-,42-,43-,44+,46-,47+,48-,49+/m1/s1

> <StdInChIKey>
MGVIMUPHKPHTKF-HQUFVKSZSA-N

> <AuxInfo>
1/0/N:60,62,56,47,41,58,57,54,46,53,45,49,43,44,38,52,51,36,39,20,30,50,42,22,61,48,59,34,32,28,37,33,31,29,27,40,15,21,35,23,17,14,19,24,55,26,16,25,18,13,10,12,4,9,6,2,7,11,8,1,3,5/it:im/rA:79cOOOOOOOOOOOOOCCCCCCCCCCCCCCCCCCCCCCCCCCCCCCCCCCCCCCCCCCCCCCCCCHHHHHHHHHHHHHHHHH/rB:;;;;;;;;;;;;s1;s2s14;s1;s4s16;s3;s2s18;s15s17;s6;s14s18;s5s21;s7;s5s24;s8;s6s26;p10s16;s3;s21s24;s9s29;s4;s8;s26;s7;s23s34;s9s33;s19;s28s32;p11s35;N18;s25;s31;s29;s27;s38s43;N25;s42;s33;s35;s40s48;s32;s37;d44s49;s11d12s50;N34;s45;s53d57;s52;P48;d13s59;d59;N14;P15;N16;P17;P19;P21;N23;P24;N26;P27;N29;P31;N32;N33;P35;P37;N40;/rC:20.0994,-2.3711,0;19.6307,-5.9002,0;16.2394,-4.5768,0;23.5182,-3.3637,0;4.8525,-5.7624,0;7.7199,-8.2438,0;3.5567,-9.3742,0;10.3943,-5.7348,0;13.6753,-7.3615,0;21.3125,0,0;.193,-9.898,0;0,-12.2416,0;24.2902,-4.5217,0;19.4928,-3.5843,0;20.2372,-4.7147,0;21.4504,-2.316,0;22.1672,-3.4188,0;17.5628,-4.8525,0;18.2797,-5.9829,0;21.5882,-4.632,0;6.5068,-7.6648,0;18.1694,-3.667,0;6.2035,-6.3689,0;4.246,-8.1886,0;3.9427,-6.9479,0;9.2088,-6.3689,0;8.9882,-7.5821,0;22.0569,-1.1028,0;15.0539,-5.2937,0;5.5142,-8.5746,0;14.8057,-6.6171,0;24.1248,-2.1506,0;11.7177,-6.0381,0;8.3816,-5.3212,0;2.2884,-9.705,0;7.0306,-5.2937,0;12.407,-7.1685,0;18.004,-7.2788,0;23.3803,-1.0201,0;1.158,-9.0433,0;17.2044,-3.5567,0;2.8398,-6.2587,0;15.5777,-7.7475,0;14.3094,-4.1908,0;9.2088,-8.4643,0;16.9011,-8.0232,0;3.5567,-5.6521,0;1.5716,-6.6171,0;11.8832,-4.6595,0;1.9851,-10.9733,0;.8823,-7.7475,0;25.5033,-2.0678,0;12.1589,-8.2989,0;13.0136,-3.9151,0;.6893,-11.0836,0;8.9606,-4.0805,0;9.9808,-9.2363,0;11.3593,-9.2915,0;26.2477,-3.2258,0;.772,-5.5418,0;25.6136,-4.439,0;27.5712,-3.1431,0;18.8311,-2.4263,0;20.8989,-5.8451,0;20.7887,-1.158,0;23.1046,-4.3562,0;18.969,-7.1134,0;6.8376,-8.9606,0;5.8451,-5.0731,0;4.5768,-9.4845,0;9.5672,-5.0731,0;8.6298,-8.8779,0;15.4123,-4.0254,0;14.4473,-7.8854,0;25.0622,-1.2131,0;11.056,-4.8801,0;3.2258,-10.6425,0;13.0687,-8.3265,0;.0276,-8.3816,0;

> <Formula>
C49 H70 O13

> <Mw>
867.0723

> <SMILES>
O1[C@@]2([H])[C@H](C[C@@]([H])(CC(=C)C=O)O[C@]2([H])C[C@@]2([H])[C@@]1([H])C[C@@]1(C)[C@@]([H])(CCC[C@@]3([H])[C@@]([H])(C=CC[C@@]4([H])[C@@]([H])(CC=CC[C@@]5([H])[C@@]([H])([C@@H](C)C[C@@]6([H])[C@@]([H])(C[C@@]7([H])[C@@](C)(C[C@H](C)C[C@@]8([H])[C@@]([H])(CC(=O)O8)O7)O6)O5)O4)O3)O1)O2)O |c:34,42|

> <CSID>
9041092

$$$$
